CPDS_validation_cosim/Distribution/Bus11/IEEE34Bus/ieee34-1_800_elem_kVA.txt

  Bus   (node ref)  Node       V (kV)    Angle    p.u.   Base kV

800 ....... 1       15.095 /_    0.0      1.05    24.900        1-2     26.145 /_   30.0      1.05
   -        2       15.095 /_ -120.0      1.05    24.900        2-3     26.145 /_  -90.0      1.05
   -        3       15.095 /_  120.0      1.05    24.900        3-1     26.145 /_  150.0      1.05

CIRCUIT ELEMENT CURRENTS

(Currents into element from indicated bus)

Power Delivery Elements

  Bus         Phase    Magnitude, A     Angle      (Real)   +j  (Imag)

ELEMENT = "Transformer.SUBXF"
SOURCEBUS       1           12.343 /_   29.7 =     10.725 +j    6.1092
SOURCEBUS       2           12.348 /_  -92.0 =   -0.42459 +j    -12.34
SOURCEBUS       3           12.039 /_  148.8 =    -10.301 +j    6.2311
SOURCEBUS       0                0 /_    0.0 =          0 +j         0
SOURCEBUS   Resid         2.4E-010 /_  -14.0 =   2.3283E-010 +j -5.8208E-011
------------
800             1            33.75 /_  179.9 =     -33.75 +j  0.030248
800             2           34.291 /_   58.9 =     17.728 +j    29.353
800             3           33.746 /_  -62.3 =     15.691 +j   -29.876
800             0          0.59413 /_   56.1 =    0.33169 +j   0.49292
800         Resid      8.3948E-010 /_  -33.7 =   6.9849E-010 +j -4.6566E-010


ELEMENT = "Line.L1"
800             1            33.75 /_   -0.1 =      33.75 +j -0.030248
800             2           34.291 /_ -121.1 =    -17.728 +j   -29.353
800             3           33.746 /_  117.7 =    -15.691 +j    29.876
800         Resid          0.59413 /_ -123.9 =    -0.33169 +j  -0.49292
------------
802             1           33.753 /_  179.9 =    -33.753 +j  0.078882
802             2           34.286 /_   58.8 =     17.764 +j    29.325
802             3            33.75 /_  -62.4 =     15.655 +j   -29.899
802         Resid          0.59713 /_   56.0 =     0.33377 +j   0.49513


= = = = = = = = = = = = = = = = = = =  = = = = = = = = = = =  = =

Power Conversion Elements

  Bus         Phase    Magnitude, A     Angle      (Real)   +j  (Imag)


CIRCUIT ELEMENT POWER FLOW

(Power Flow into element from indicated Bus)

  Bus       Phase     kW     +j   kvar           kVA           PF

ELEMENT = "Transformer.SUBXF"
800             1    -509.45 +j   -0.45035        509.45      1.0000
800             2    -517.51 +j    -10.197        517.61      0.9998
800             3    -508.98 +j    -20.367        509.39      0.9992
800             0          0 +j          0             0      1.0000
 TERMINAL TOTAL      -1535.9 +j    -31.015        1536.3      0.9998
------------
ELEMENT = "Transformer.SUBXF"
SOURCEBUS       1     516.29 +j     3.0053         516.3      1.0000
SOURCEBUS       2     516.18 +j     17.757        516.49      0.9994
SOURCEBUS       3     503.46 +j     10.285        503.57      0.9998
SOURCEBUS       0          0 +j          0             0      1.0000
 TERMINAL TOTAL       1535.9 +j     31.046        1536.3      0.9998
ELEMENT = "Line.L1"          
800             1     509.45 +j    0.45035        509.45      1.0000
800             2     517.51 +j     10.197        517.61      0.9998
800             3     508.98 +j     20.367        509.39      0.9992
 TERMINAL TOTAL       1535.9 +j     31.015        1536.3      0.9998
------------
ELEMENT = "Line.L1"          
802             1    -508.84 +j   -0.73681        508.84      1.0000
802             2    -516.84 +j    -10.406        516.95      0.9998
802             3    -508.37 +j     -20.52        508.78      0.9992
 TERMINAL TOTAL        -1534 +j    -31.663        1534.4      0.9998
= = = = = = = = = = = = = = = = = = =  = = = = = = = = = = =  = =

Power Conversion Elements

  Bus         Phase     kW   +j  kvar         kVA         PF

